/*--------------------------------*- C++ -*----------------------------------*\
  =========                 |
  \      /  F ield         | OpenFOAM: The Open Source CFD Toolbox
   \    /   O peration     | Website:  https://openfoam.org
    \  /    A nd           | Version:  10
     \/     M anipulation  |
\*---------------------------------------------------------------------------*/
FoamFile
{
    format      ascii;
    class       dictionary;
    object      topoSetDict;
}
// * * * * * * * * * * * * * * * * * * * * * * * * * * * * * * * * * * * * * //

actions
(
    {
        name    scent_source_side;
        type    cellSet;
        action  new;
        source  sphereToCell;
        sourceInfo
        {
            centre  (7.5 5.0 1.5);
            radius  0.3;
        }
    }
);

// * * * * * * * * * * * * * * * * * * * * * * * * * * * * * * * * * * * * * //
