/*--------------------------------*- C++ -*----------------------------------*\
| =========                 |                                                 |
| \\      /  F ield         | OpenFOAM: The Open Source CFD Toolbox           |
|  \\    /   O peration     | Version:  v2212                                 |
|   \\  /    A nd           | Website:  www.openfoam.com                      |
|    \\/     M anipulation  |                                                 |
\*---------------------------------------------------------------------------*/
FoamFile
{
    version     2.0;
    format      ascii;
    class       dictionary;
    object      blockMeshDict;
}
// * * * * * * * * * * * * * * * * * * * * * * * * * * * * * * * * * * * * * //

scale   1;

vertices
(
    (-15 -20 -2)   // 0: 左下奥（拡大）
    (15 -20 -2)    // 1: 右下奥
    (15 15 -2)     // 2: 右上奥
    (-15 15 -2)    // 3: 左上奥
    (-15 -20 8)    // 4: 左下前
    (15 -20 8)     // 5: 右下前
    (15 15 8)      // 6: 右上前
    (-15 15 8)     // 7: 左上前
);

blocks
(
    hex (0 1 2 3 4 5 6 7) (60 70 20) simpleGrading (1 1 1)
);

edges
(
);

boundary
(
    inlet
    {
        type patch;
        faces
        (
            (0 4 7 3)
        );
    }
    outlet
    {
        type patch;
        faces
        (
            (1 2 6 5)
        );
    }
    ground
    {
        type wall;
        faces
        (
            (0 3 2 1)
        );
    }
    atmosphere
    {
        type patch;
        faces
        (
            (4 5 6 7)  // top
            (0 1 5 4)  // front
            (3 7 6 2)  // back
        );
    }
);

// ************************************************************************* //