/*--------------------------------*- C++ -*----------------------------------*\
| =========                 |                                                 |
| \\      /  F ield         | OpenFOAM: The Open Source CFD Toolbox           |
|  \\    /   O peration     | Version:  v2212                                 |
|   \\  /    A nd           | Website:  www.openfoam.com                      |
|    \\/     M anipulation  |                                                 |
\*---------------------------------------------------------------------------*/
FoamFile
{
    version     2.0;
    format      ascii;
    class       dictionary;
    object      topoSetDict;
}
// * * * * * * * * * * * * * * * * * * * * * * * * * * * * * * * * * * * * * //

actions
(
    {
        name    odorSourceCells;
        type    cellSet;
        action  new;
        source  sphereToCell;
        sourceInfo
        {
            centre  (2 -3 0.5);  // 匂い源の中心座標（瓦礫内部の一点）
            radius  0.3;         // 半径0.3mの小さな球形領域
        }
    }
);

// ************************************************************************* //
